REMARK  12 active torsions:
REMARK  status: ('A' for Active; 'I' for Inactive)
REMARK    1  A    between atoms: C2_3  and  C20_13 
REMARK    2  A    between atoms: C2_3  and  N2_4 
REMARK    3  A    between atoms: C3_5  and  C31_27 
REMARK    4  A    between atoms: C6_10  and  C61_34 
REMARK    5  A    between atoms: C7_11  and  C70_41 
REMARK    6  A    between atoms: C7_11  and  N7_12 
REMARK    7  A    between atoms: C22_15  and  C26_19 
REMARK       I    between atoms: C26_19  and  N26_20 
REMARK    8  A    between atoms: N26_20  and  C27_22 
REMARK    9  A    between atoms: C31_27  and  C32_28 
REMARK   10  A    between atoms: C61_34  and  C62_35 
REMARK   11  A    between atoms: C72_43  and  C76_47 
REMARK       I    between atoms: C76_47  and  N76_48 
REMARK   12  A    between atoms: N76_48  and  C77_50 
ROOT
HETATM    1  C1  XV6 A 638      -0.670  17.389  22.036  1.00 11.79     0.324 C 
HETATM    2  O1  XV6 A 638       0.237  17.236  21.231  1.00  9.63    -0.247 OA
HETATM    3  N2  XV6 A 638      -1.836  17.899  21.612  1.00 10.02    -0.298 N 
HETATM    4  C3  XV6 A 638      -2.732  18.728  22.440  1.00 10.83     0.123 C 
HETATM    5  C4  XV6 A 638      -3.428  18.082  23.620  1.00 10.40     0.205 C 
HETATM    6  O4  XV6 A 638      -4.371  18.983  24.097  1.00 11.00    -0.219 OA
HETATM    7  C5  XV6 A 638      -2.507  17.724  24.747  1.00 14.18     0.205 C 
HETATM    8  O5  XV6 A 638      -3.233  17.169  25.834  1.00 12.64    -0.219 OA
HETATM    9  C6  XV6 A 638      -1.530  16.663  24.287  1.00 11.68     0.123 C 
HETATM   10  N7  XV6 A 638      -0.466  17.016  23.312  1.00 14.05    -0.298 N 
ENDROOT
BRANCH   3  11
HETATM   11  C2  XV6 A 638      -2.140  17.765  20.179  1.00  8.66     0.133 C 
BRANCH  11  12
HETATM   12  C20 XV6 A 638      -3.585  17.912  19.745  1.00 11.79     0.000 A 
HETATM   13  C21 XV6 A 638      -4.572  17.870  20.743  1.00 11.47     0.002 A 
HETATM   14  C22 XV6 A 638      -5.939  18.019  20.408  1.00 14.47     0.058 A 
HETATM   15  C23 XV6 A 638      -6.320  18.211  19.057  1.00 11.52     0.005 A 
HETATM   16  C24 XV6 A 638      -5.336  18.261  18.044  1.00  9.94    -0.000 A 
HETATM   17  C25 XV6 A 638      -3.971  18.108  18.393  1.00 15.65    -0.002 A 
BRANCH  14  18
HETATM   18  C26 XV6 A 638      -6.975  17.992  21.505  1.00 15.98     0.281 C 
HETATM   19  N26 XV6 A 638      -7.579  16.805  21.615  1.00 19.10    -0.183 NA
HETATM   20  O26 XV6 A 638      -7.245  18.934  22.239  1.00 13.04    -0.265 OA
BRANCH  19  21
HETATM   21  C27 XV6 A 638      -8.570  16.488  22.636  1.00 20.36     0.197 A 
HETATM   22  S29 XV6 A 638      -8.218  16.203  24.246  1.00 23.13    -0.046 SA
HETATM   23  C29 XV6 A 638      -9.784  15.849  24.736  1.00 21.27     0.059 A 
HETATM   24  C28 XV6 A 638     -10.559  15.970  23.571  1.00 23.23     0.108 A 
HETATM   25  N27 XV6 A 638      -9.878  16.325  22.425  1.00 22.96    -0.219 NA
ENDBRANCH  19  21
ENDBRANCH  14  18
ENDBRANCH  11  12
ENDBRANCH   3  11
BRANCH  10  26
HETATM   26  C7  XV6 A 638       0.926  16.753  23.723  1.00  8.37     0.133 C 
BRANCH  26  27
HETATM   27  C70 XV6 A 638       1.588  17.834  24.532  1.00  7.69     0.000 A 
HETATM   28  C71 XV6 A 638       0.877  19.023  24.776  1.00 10.09     0.002 A 
HETATM   29  C72 XV6 A 638       1.481  20.073  25.508  1.00  8.16     0.058 A 
HETATM   30  C73 XV6 A 638       2.791  19.924  26.010  1.00 10.09     0.005 A 
HETATM   31  C74 XV6 A 638       3.496  18.729  25.772  1.00  9.79    -0.000 A 
HETATM   32  C75 XV6 A 638       2.900  17.680  25.030  1.00  9.14    -0.002 A 
BRANCH  29  33
HETATM   33  C76 XV6 A 638       0.757  21.361  25.731  1.00 11.45     0.281 C 
HETATM   34  N76 XV6 A 638       1.531  22.373  26.163  1.00 11.46    -0.183 NA
HETATM   35  O76 XV6 A 638      -0.435  21.507  25.510  1.00  6.24    -0.265 OA
BRANCH  34  36
HETATM   36  C77 XV6 A 638       0.983  23.705  26.390  1.00 11.22     0.197 A 
HETATM   37  S79 XV6 A 638       1.246  24.616  27.787  1.00 17.73    -0.046 SA
HETATM   38  C79 XV6 A 638       0.213  25.889  27.349  1.00 17.63     0.059 A 
HETATM   39  C78 XV6 A 638      -0.307  25.554  26.081  1.00 14.00     0.108 A 
HETATM   40  N77 XV6 A 638       0.127  24.348  25.567  1.00 16.25    -0.219 NA
ENDBRANCH  34  36
ENDBRANCH  29  33
ENDBRANCH  26  27
ENDBRANCH  10  26
BRANCH   4  41
HETATM   41  C31 XV6 A 638      -2.053  20.081  22.720  1.00 10.07     0.051 C 
BRANCH  41  42
HETATM   42  C32 XV6 A 638      -1.912  20.903  21.468  1.00 14.17    -0.020 A 
HETATM   43  C33 XV6 A 638      -2.894  21.857  21.135  1.00 12.45    -0.004 A 
HETATM   44  C34 XV6 A 638      -2.682  22.698  20.021  1.00 12.11    -0.000 A 
HETATM   45  C35 XV6 A 638      -1.511  22.583  19.244  1.00 13.58    -0.000 A 
HETATM   46  C36 XV6 A 638      -0.536  21.611  19.573  1.00 13.34    -0.000 A 
HETATM   47  C37 XV6 A 638      -0.741  20.774  20.685  1.00 12.95    -0.004 A 
ENDBRANCH  41  42
ENDBRANCH   4  41
BRANCH   9  48
HETATM   48  C61 XV6 A 638      -2.175  15.322  23.896  1.00 15.70     0.051 C 
BRANCH  48  49
HETATM   49  C62 XV6 A 638      -1.157  14.228  24.044  1.00 14.31    -0.020 A 
HETATM   50  C63 XV6 A 638      -0.657  13.606  22.877  1.00 11.15    -0.004 A 
HETATM   51  C64 XV6 A 638       0.253  12.542  22.992  1.00 11.19    -0.000 A 
HETATM   52  C65 XV6 A 638       0.659  12.116  24.278  1.00 10.70    -0.000 A 
HETATM   53  C66 XV6 A 638       0.160  12.744  25.437  1.00 10.31    -0.000 A 
HETATM   54  C67 XV6 A 638      -0.759  13.807  25.332  1.00 12.71    -0.004 A 
ENDBRANCH  48  49
ENDBRANCH   9  48
TORSDOF 12
