REMARK  12 active torsions:
REMARK  status: ('A' for Active; 'I' for Inactive)
REMARK    1  A    between atoms: C2_3  and  N2_4 
REMARK    2  A    between atoms: C2_3  and  C20_13 
REMARK    3  A    between atoms: C3_5  and  C31_27 
REMARK    4  A    between atoms: C6_10  and  C61_34 
REMARK    5  A    between atoms: C7_11  and  N7_12 
REMARK    6  A    between atoms: C7_11  and  C70_41 
REMARK    7  A    between atoms: C22_15  and  C26_19 
REMARK       I    between atoms: C26_19  and  N26_20 
REMARK    8  A    between atoms: N26_20  and  C27_22 
REMARK    9  A    between atoms: C31_27  and  C32_28 
REMARK   10  A    between atoms: C61_34  and  C62_35 
REMARK   11  A    between atoms: C72_43  and  C76_47 
REMARK       I    between atoms: C76_47  and  N76_48 
REMARK   12  A    between atoms: N76_48  and  C77_50 
ROOT
HETATM    1  C1  XV6 A 638      -8.956  15.312  27.881  1.00 11.79     0.324 C 
HETATM    2  O1  XV6 A 638      -8.446  14.202  27.840  1.00  9.63    -0.247 OA
HETATM    3  N2  XV6 A 638      -9.778  15.611  28.899  1.00 10.02    -0.298 N 
HETATM    4  C3  XV6 A 638     -10.923  16.536  28.799  1.00 10.83     0.123 C 
HETATM    5  C4  XV6 A 638     -10.646  18.007  28.572  1.00 10.40     0.205 C 
HETATM    6  O4  XV6 A 638     -11.843  18.691  28.738  1.00 11.00    -0.219 OA
HETATM    7  C5  XV6 A 638     -10.109  18.321  27.208  1.00 14.18     0.205 C 
HETATM    8  O5  XV6 A 638      -9.919  19.720  27.051  1.00 12.64    -0.219 OA
HETATM    9  C6  XV6 A 638      -8.752  17.673  27.035  1.00 11.68     0.123 C 
HETATM   10  N7  XV6 A 638      -8.651  16.196  26.914  1.00 14.05    -0.298 N 
ENDROOT
BRANCH   3  11
HETATM   11  C2  XV6 A 638      -9.623  14.826  30.133  1.00  8.66     0.133 C 
BRANCH  11  12
HETATM   12  C20 XV6 A 638      -9.468  15.582  31.438  1.00 11.79     0.000 A 
HETATM   13  C21 XV6 A 638     -10.149  15.087  32.562  1.00 11.47     0.002 A 
HETATM   14  C22 XV6 A 638     -10.033  15.735  33.815  1.00 14.47     0.058 A 
HETATM   15  C23 XV6 A 638      -9.225  16.892  33.942  1.00 11.52     0.005 A 
HETATM   16  C24 XV6 A 638      -8.530  17.396  32.820  1.00  9.94    -0.000 A 
HETATM   17  C25 XV6 A 638      -8.657  16.739  31.570  1.00 15.65    -0.002 A 
BRANCH  14  18
HETATM   18  C26 XV6 A 638     -10.759  15.167  35.010  1.00 15.98     0.281 C 
HETATM   19  N26 XV6 A 638     -11.036  13.867  34.875  1.00 19.10    -0.183 NA
HETATM   20  O26 XV6 A 638     -11.061  15.800  36.014  1.00 13.04    -0.265 OA
BRANCH  19  21
HETATM   21  C27 XV6 A 638     -11.671  13.058  35.909  1.00 20.36     0.197 A 
HETATM   22  N27 XV6 A 638     -11.698  11.724  35.944  1.00 22.96    -0.219 NA
HETATM   23  C28 XV6 A 638     -12.319  11.237  37.076  1.00 23.23     0.108 A 
HETATM   24  C29 XV6 A 638     -12.809  12.201  37.973  1.00 21.27     0.059 A 
HETATM   25  S29 XV6 A 638     -12.417  13.675  37.272  1.00 23.13    -0.046 SA
ENDBRANCH  19  21
ENDBRANCH  14  18
ENDBRANCH  11  12
ENDBRANCH   3  11
BRANCH  10  26
HETATM   26  C7  XV6 A 638      -7.988  15.671  25.706  1.00  8.37     0.133 C 
BRANCH  26  27
HETATM   27  C70 XV6 A 638      -8.687  15.940  24.403  1.00  7.69     0.000 A 
HETATM   28  C71 XV6 A 638      -7.908  16.233  23.269  1.00 10.09     0.002 A 
HETATM   29  C72 XV6 A 638      -8.535  16.521  22.033  1.00  8.16     0.058 A 
HETATM   30  C73 XV6 A 638      -9.942  16.499  21.930  1.00 10.09     0.005 A 
HETATM   31  C74 XV6 A 638     -10.718  16.195  23.065  1.00  9.79    -0.000 A 
HETATM   32  C75 XV6 A 638     -10.096  15.918  24.306  1.00  9.14    -0.002 A 
BRANCH  29  33
HETATM   33  C76 XV6 A 638      -7.722  16.885  20.833  1.00 11.45     0.281 C 
HETATM   34  N76 XV6 A 638      -6.446  16.461  20.869  1.00 11.46    -0.183 NA
HETATM   35  O76 XV6 A 638      -8.176  17.490  19.874  1.00  6.24    -0.265 OA
BRANCH  34  36
HETATM   36  C77 XV6 A 638      -5.534  16.701  19.757  1.00 11.22     0.197 A 
HETATM   37  N77 XV6 A 638      -4.423  15.982  19.488  1.00 16.25    -0.219 NA
HETATM   38  C78 XV6 A 638      -3.806  16.368  18.315  1.00 14.00     0.108 A 
HETATM   39  C79 XV6 A 638      -4.436  17.424  17.623  1.00 17.63     0.059 A 
HETATM   40  S79 XV6 A 638      -5.788  17.857  18.552  1.00 17.73    -0.046 SA
ENDBRANCH  34  36
ENDBRANCH  29  33
ENDBRANCH  26  27
ENDBRANCH  10  26
BRANCH   4  41
HETATM   41  C31 XV6 A 638     -12.001  15.909  27.896  1.00 10.07     0.051 C 
BRANCH  41  42
HETATM   42  C32 XV6 A 638     -12.563  14.647  28.493  1.00 14.17    -0.020 A 
HETATM   43  C33 XV6 A 638     -12.158  13.391  27.999  1.00 12.45    -0.004 A 
HETATM   44  C34 XV6 A 638     -12.606  12.222  28.651  1.00 12.11    -0.000 A 
HETATM   45  C35 XV6 A 638     -13.455  12.304  29.774  1.00 13.58    -0.000 A 
HETATM   46  C36 XV6 A 638     -13.872  13.568  30.256  1.00 13.34    -0.000 A 
HETATM   47  C37 XV6 A 638     -13.424  14.736  29.612  1.00 12.95    -0.004 A 
ENDBRANCH  41  42
ENDBRANCH   4  41
BRANCH   9  48
HETATM   48  C61 XV6 A 638      -7.664  18.196  27.990  1.00 15.70     0.051 C 
BRANCH  48  49
HETATM   49  C62 XV6 A 638      -6.326  18.076  27.319  1.00 14.31    -0.020 A 
HETATM   50  C63 XV6 A 638      -6.021  18.956  26.255  1.00 11.15    -0.004 A 
HETATM   51  C64 XV6 A 638      -4.799  18.826  25.574  1.00 11.19    -0.000 A 
HETATM   52  C65 XV6 A 638      -3.891  17.818  25.971  1.00 10.70    -0.000 A 
HETATM   53  C66 XV6 A 638      -4.200  16.947  27.036  1.00 10.31    -0.000 A 
HETATM   54  C67 XV6 A 638      -5.426  17.065  27.720  1.00 12.71    -0.004 A 
ENDBRANCH  48  49
ENDBRANCH   9  48
TORSDOF 12
