REMARK  12 active torsions:
REMARK  status: ('A' for Active; 'I' for Inactive)
REMARK    1  A    between atoms: C2_3  and  C20_13 
REMARK    2  A    between atoms: C2_3  and  N2_4 
REMARK    3  A    between atoms: C3_5  and  C31_27 
REMARK    4  A    between atoms: C6_10  and  C61_34 
REMARK    5  A    between atoms: C7_11  and  C70_41 
REMARK    6  A    between atoms: C7_11  and  N7_12 
REMARK    7  A    between atoms: C22_15  and  C26_19 
REMARK       I    between atoms: C26_19  and  N26_20 
REMARK    8  A    between atoms: N26_20  and  C27_22 
REMARK    9  A    between atoms: C31_27  and  C32_28 
REMARK   10  A    between atoms: C61_34  and  C62_35 
REMARK   11  A    between atoms: C72_43  and  C76_47 
REMARK       I    between atoms: C76_47  and  N76_48 
REMARK   12  A    between atoms: N76_48  and  C77_50 
ROOT
HETATM    1  C1  XV6 A 638      -1.918  16.408  22.687  1.00 11.79     0.324 C 
HETATM    2  O1  XV6 A 638      -2.106  15.332  22.138  1.00  9.63    -0.247 OA
HETATM    3  N2  XV6 A 638      -2.101  16.500  24.013  1.00 10.02    -0.298 N 
HETATM    4  C3  XV6 A 638      -2.559  17.719  24.707  1.00 10.83     0.123 C 
HETATM    5  C4  XV6 A 638      -1.640  18.922  24.736  1.00 10.40     0.205 C 
HETATM    6  O4  XV6 A 638      -2.183  19.845  25.620  1.00 11.00    -0.219 OA
HETATM    7  C5  XV6 A 638      -1.471  19.589  23.404  1.00 14.18     0.205 C 
HETATM    8  O5  XV6 A 638      -0.638  20.734  23.516  1.00 12.64    -0.219 OA
HETATM    9  C6  XV6 A 638      -0.784  18.641  22.445  1.00 11.68     0.123 C 
HETATM   10  N7  XV6 A 638      -1.513  17.449  21.939  1.00 14.05    -0.298 N 
ENDROOT
BRANCH   3  11
HETATM   11  C2  XV6 A 638      -2.007  15.252  24.787  1.00  8.66     0.133 C 
BRANCH  11  12
HETATM   12  C20 XV6 A 638      -0.766  14.400  24.607  1.00 11.79     0.000 A 
HETATM   13  C21 XV6 A 638      -0.731  13.524  23.511  1.00 11.47     0.002 A 
HETATM   14  C22 XV6 A 638       0.404  12.713  23.275  1.00 14.47     0.058 A 
HETATM   15  C23 XV6 A 638       1.518  12.782  24.148  1.00 11.52     0.005 A 
HETATM   16  C24 XV6 A 638       1.498  13.664  25.252  1.00  9.94    -0.000 A 
HETATM   17  C25 XV6 A 638       0.353  14.469  25.478  1.00 15.65    -0.002 A 
BRANCH  14  18
HETATM   18  C26 XV6 A 638       0.422  11.797  22.075  1.00 15.98     0.281 C 
HETATM   19  N26 XV6 A 638      -0.238  12.304  21.030  1.00 19.10    -0.183 NA
HETATM   20  O26 XV6 A 638       0.983  10.709  22.031  1.00 13.04    -0.265 OA
BRANCH  19  21
HETATM   21  C27 XV6 A 638      -0.319  11.656  19.726  1.00 20.36     0.197 A 
HETATM   22  S29 XV6 A 638      -0.607  12.454  18.286  1.00 23.13    -0.046 SA
HETATM   23  C29 XV6 A 638      -0.632  11.094  17.302  1.00 21.27     0.059 A 
HETATM   24  C28 XV6 A 638      -0.405  10.017  18.175  1.00 23.23     0.108 A 
HETATM   25  N27 XV6 A 638      -0.232  10.342  19.505  1.00 22.96    -0.219 NA
ENDBRANCH  19  21
ENDBRANCH  14  18
ENDBRANCH  11  12
ENDBRANCH   3  11
BRANCH  10  26
HETATM   26  C7  XV6 A 638      -1.633  17.315  20.475  1.00  8.37     0.133 C 
BRANCH  26  27
HETATM   27  C70 XV6 A 638      -3.032  17.339  19.926  1.00  7.69     0.000 A 
HETATM   28  C71 XV6 A 638      -4.111  17.303  20.828  1.00 10.09     0.002 A 
HETATM   29  C72 XV6 A 638      -5.441  17.293  20.343  1.00  8.16     0.058 A 
HETATM   30  C73 XV6 A 638      -5.689  17.337  18.955  1.00 10.09     0.005 A 
HETATM   31  C74 XV6 A 638      -4.607  17.384  18.055  1.00  9.79    -0.000 A 
HETATM   32  C75 XV6 A 638      -3.275  17.382  18.535  1.00  9.14    -0.002 A 
BRANCH  29  33
HETATM   33  C76 XV6 A 638      -6.595  17.202  21.288  1.00 11.45     0.281 C 
HETATM   34  N76 XV6 A 638      -7.763  16.860  20.716  1.00 11.46    -0.183 NA
HETATM   35  O76 XV6 A 638      -6.493  17.389  22.491  1.00  6.24    -0.265 OA
BRANCH  34  36
HETATM   36  C77 XV6 A 638      -8.976  16.690  21.508  1.00 11.22     0.197 A 
HETATM   37  S79 XV6 A 638      -9.051  15.824  22.956  1.00 17.73    -0.046 SA
HETATM   38  C79 XV6 A 638     -10.730  15.973  23.148  1.00 17.63     0.059 A 
HETATM   39  C78 XV6 A 638     -11.186  16.729  22.047  1.00 14.00     0.108 A 
HETATM   40  N77 XV6 A 638     -10.207  17.116  21.154  1.00 16.25    -0.219 NA
ENDBRANCH  34  36
ENDBRANCH  29  33
ENDBRANCH  26  27
ENDBRANCH  10  26
BRANCH   4  41
HETATM   41  C31 XV6 A 638      -4.022  18.001  24.320  1.00 10.07     0.051 C 
BRANCH  41  42
HETATM   42  C32 XV6 A 638      -4.948  17.856  25.497  1.00 14.17    -0.020 A 
HETATM   43  C33 XV6 A 638      -4.621  16.977  26.549  1.00 12.45    -0.004 A 
HETATM   44  C34 XV6 A 638      -5.443  16.946  27.696  1.00 12.11    -0.000 A 
HETATM   45  C35 XV6 A 638      -6.581  17.774  27.789  1.00 13.58    -0.000 A 
HETATM   46  C36 XV6 A 638      -6.914  18.643  26.723  1.00 13.34    -0.000 A 
HETATM   47  C37 XV6 A 638      -6.095  18.681  25.579  1.00 12.95    -0.004 A 
ENDBRANCH  41  42
ENDBRANCH   4  41
BRANCH   9  48
HETATM   48  C61 XV6 A 638       0.649  18.247  22.846  1.00 15.70     0.051 C 
BRANCH  48  49
HETATM   49  C62 XV6 A 638       1.163  17.222  21.877  1.00 14.31    -0.020 A 
HETATM   50  C63 XV6 A 638       1.302  15.885  22.317  1.00 11.15    -0.004 A 
HETATM   51  C64 XV6 A 638       1.835  14.919  21.447  1.00 11.19    -0.000 A 
HETATM   52  C65 XV6 A 638       2.218  15.302  20.141  1.00 10.70    -0.000 A 
HETATM   53  C66 XV6 A 638       2.072  16.636  19.708  1.00 10.31    -0.000 A 
HETATM   54  C67 XV6 A 638       1.545  17.613  20.576  1.00 12.71    -0.004 A 
ENDBRANCH  48  49
ENDBRANCH   9  48
TORSDOF 12
